*Heading
** Job name: 15 Model name: Model-1
** Generated by: Abaqus/CAE 2017
*Preprint, echo=NO, model=NO, history=NO, contact=NO
**
** PARTS
**
*Part, name=cytoskeleton
*Node
      1,  -7.07106781,   7.07106781,           0.
      2,  -7.07106781,           0.,  -7.07106781
      3,         -10.,           0.,           0.
      4,  -7.07106781,           0.,   7.07106781
      5,           0.,           0.,           0.
      6,           0.,           7.,           0.
      7,           0.,          10.,           0.
      8,           0.,           0.,          10.
      9,           0.,           0.,         -10.
     10,          10.,           0.,           0.
     11,  -7.07106781,    6.9636426,  -1.22787809
     12,  -7.07106781,   6.64463043,  -2.41844773
     13,  -7.07106781,   6.12372446,  -3.53553391
     14,  -7.07106781,   5.41675234,  -4.54519463
     15,  -7.07106781,   4.54519463,  -5.41675234
     16,  -7.07106781,   3.53553391,  -6.12372446
     17,  -7.07106781,   2.41844773,  -6.64463043
     18,  -7.07106781,   1.22787809,   -6.9636426
     19,  -8.31469631,           0.,  -5.55570221
     20,  -9.23879528,           0.,  -3.82683444
** ... 6228 like lines cut
*Element, type=C3D10M
  1,  498,  499,  189,  500,  894,  893,  892,  896,  895,  897
  2,  498,  499,  501,  190,  894,  899,  898,  901,  900,  902
  3,  498,  189,   41,   40,  892,  904,  903,  906,  905,  907
  4,   40,  498,  502,  142,  906,  909,  908,  911,  910,  912
  5,  498,   41,  190,  147,  903,  913,  901,  915,  914,  916
  6,  503,  504,  175,  505,  919,  918,  917,  921,  920,  922
  7,  503,   37,  186,  144,  925,  924,  923,  927,  926,  928
  8,  506,  502,  500,  507,  931,  930,  929,  933,  932,  934
  9,  506,  131,  507,  132,  936,  935,  933,  938,  937,  939
 10,  506,  188,   32,    3,  942,  941,  940,  944,  943,  945
 11,  187,  506,   32,  505,  947,  940,  946,  949,  948,  950
 12,  506,  505,  508,  507,  948,  952,  951,  933,  953,  954
 13,  506,  507,  508,  502,  933,  954,  951,  931,  932,  955
 14,  509,  175,  504,  505,  957,  918,  956,  958,  922,  920
 15,  509,  510,  507,  136,  961,  960,  959,  963,  962,  964
 16,  509,  510,  136,  129,  961,  962,  963,  966,  965,  967
 17,  509,  173,  510,  184,  969,  968,  961,  971,  970,  972
 18,  509,  184,  504,  175,  971,  973,  956,  957,  974,  918
 19,  169,  184,  504,  137,  976,  973,  975,  978,  977,  979
 20,  171,  503,  130,  504,  982,  981,  980,  983,  919,  984
** ... 4030 like lines cut
*Nset, nset=Set-1, generate
    1,  6248,     1
*Elset, elset=Set-1, generate
    1,  4050,     1
** Section: cytoskeleton
*Solid Section, elset=Set-1, material=cytoskeleton
,
*End Part
**  
*Part, name=membrane
*Node
      1,           0.,           0.,           0.
      2,         -10.,           0.,           0.
      3,           0.,           0.,         -10.
      4,          10.,           0.,           0.
      5,           0.,           0.,          10.
      6,           0.,          10.,           0.
      7,  -1.42857146,           0.,           0.
      8,  -2.85714293,           0.,           0.
      9,  -4.28571415,           0.,           0.
     10,  -5.71428585,           0.,           0.
     11,  -7.14285707,           0.,           0.
     12,   -8.5714283,           0.,           0.
     13,  -9.89821434,           0.,  -1.42314839
     14,   -9.5949297,           0.,  -2.81732559
     15,  -9.09632015,           0.,  -4.15415001
     16,  -8.41253567,           0.,  -5.40640831
     17,  -7.55749559,           0.,  -6.54860735
     18,  -6.54860735,           0.,  -7.55749559
     19,  -5.40640831,           0.,  -8.41253567
     20,  -4.15415001,           0.,  -9.09632015
** ... 519 like lines cut
*Element, type=S3
  1,  63,   8,   7
  2,  94,   9,  10
  3,  67,  20,  21
  4,  66,   8,  64
  5, 165, 161, 163
  6,  68,   7,  66
  7, 136,  69, 101
  8, 118, 107,  71
  9,  72,  71,  25
 10, 218, 120, 178
 11, 218, 178, 206
 12,  74,  73,  28
 13,  75,  30,  31
 14,  76,  75,  31
 15, 111,  33,  34
 16,  78,  34,  35
 17,  79,  78,  35
 18,  81,  38,  39
 19,  81,  80,  38
 20, 147, 122, 109
** ... 352 like lines cut
*Element, type=S3R
373, 389, 379, 378
374, 251, 260, 247
375, 324, 336, 323
376, 521, 520, 291
377, 432, 533, 444
378, 435, 418, 434
379, 412, 394, 411
380, 408, 529, 409
381, 397, 413, 414
382, 512, 462, 463
383, 498, 469, 483
384, 531, 284, 372
*Element, type=S4R
385,  13,   2,  53, 225
386, 226, 225, 230, 231
387, 232, 231, 238, 239
388, 239, 253, 252, 240
389, 251, 252, 246, 260
390, 247, 261, 250, 505
391, 522, 262, 261, 268
392, 274, 263, 275, 285
393, 429, 303, 388, 428
394, 524, 373, 402, 374
395, 373, 400, 401, 402
396, 387, 399, 400, 372
397, 387, 386, 398, 399
398, 386, 385, 397, 414
399, 385, 369, 396, 397
400, 383, 395, 384, 504
401, 382, 393, 383, 504
402, 513, 503, 381, 392
403, 380, 391, 381, 365
404, 391, 380, 379, 390
** ... 325 like lines cut
*Nset, nset=Set-3
   2,   3,   4,   5,   6,  13,  14,  15,  16,  17,  18,  19,  20,  21,  22,  23
  24,  25,  26,  27,  28,  29,  30,  31,  32,  33,  34,  35,  36,  37,  38,  39
  40,  41,  42,  43,  44,  45,  46,  47,  48,  49,  50,  51,  52,  53,  54,  55
  56,  57,  58,  59,  60,  61,  62, 221, 222, 223, 224, 225, 226, 227, 228, 229
 230, 231, 232, 233, 234, 235, 236, 237, 238, 239, 240, 241, 242, 243, 244, 245
 246, 247, 248, 249, 250, 251, 252, 253, 254, 255, 256, 257, 258, 259, 260, 261
 262, 263, 264, 265, 266, 267, 268, 269, 270, 271, 272, 273, 274, 275, 276, 277
 278, 279, 280, 281, 282, 283, 284, 285, 286, 287, 288, 289, 290, 291, 292, 293
 294, 295, 296, 297, 298, 299, 300, 301, 302, 303, 304, 305, 306, 307, 308, 309
 310, 311, 312, 313, 314, 315, 316, 317, 318, 319, 320, 321, 322, 323, 324, 325
 326, 327, 328, 329, 330, 331, 332, 333, 334, 335, 336, 337, 338, 339, 340, 341
 342, 343, 344, 345, 346, 347, 348, 349, 350, 351, 352, 353, 354, 355, 356, 357
 358, 359, 360, 361, 362, 363, 364, 365, 366, 367, 368, 369, 370, 371, 372, 373
 374, 375, 376, 377, 378, 379, 380, 381, 382, 383, 384, 385, 386, 387, 388, 389
 390, 391, 392, 393, 394, 395, 396, 397, 398, 399, 400, 401, 402, 403, 404, 405
 406, 407, 408, 409, 410, 411, 412, 413, 414, 415, 416, 417, 418, 419, 420, 421
 422, 423, 424, 425, 426, 427, 428, 429, 430, 431, 432, 433, 434, 435, 436, 437
 438, 439, 440, 441, 442, 443, 444, 445, 446, 447, 448, 449, 450, 451, 452, 453
 454, 455, 456, 457, 458, 459, 460, 461, 462, 463, 464, 465, 466, 467, 468, 469
 470, 471, 472, 473, 474, 475, 476, 477, 478, 479, 480, 481, 482, 483, 484, 485
** ... 4 like lines cut
*Elset, elset=Set-3, generate
 373,  729,    1
*Nset, nset=Set-6
   1,   2,   3,   4,   5,   7,   8,   9,  10,  11,  12,  13,  14,  15,  16,  17
  18,  19,  20,  21,  22,  23,  24,  25,  26,  27,  28,  29,  30,  31,  32,  33
  34,  35,  36,  37,  38,  39,  40,  41,  42,  43,  44,  45,  46,  47,  48,  49
  50,  51,  52,  63,  64,  65,  66,  67,  68,  69,  70,  71,  72,  73,  74,  75
  76,  77,  78,  79,  80,  81,  82,  83,  84,  85,  86,  87,  88,  89,  90,  91
  92,  93,  94,  95,  96,  97,  98,  99, 100, 101, 102, 103, 104, 105, 106, 107
 108, 109, 110, 111, 112, 113, 114, 115, 116, 117, 118, 119, 120, 121, 122, 123
 124, 125, 126, 127, 128, 129, 130, 131, 132, 133, 134, 135, 136, 137, 138, 139
 140, 141, 142, 143, 144, 145, 146, 147, 148, 149, 150, 151, 152, 153, 154, 155
 156, 157, 158, 159, 160, 161, 162, 163, 164, 165, 166, 167, 168, 169, 170, 171
 172, 173, 174, 175, 176, 177, 178, 179, 180, 181, 182, 183, 184, 185, 186, 187
 188, 189, 190, 191, 192, 193, 194, 195, 196, 197, 198, 199, 200, 201, 202, 203
 204, 205, 206, 207, 208, 209, 210, 211, 212, 213, 214, 215, 216, 217, 218, 219
 220,
*Elset, elset=Set-6, generate
   1,  372,    1
** Section: membrane
*Shell Section, elset=Set-6, material=membrane, offset=SNEG
0.01, 5
** Section: membrane
*Shell Section, elset=Set-3, material=membrane, offset=SPOS
0.01, 5
*End Part
**  
*Part, name=nuclei
*Node
      1,  0.887120008,   7.38570786,           0.
      2,  0.887120008,  0.614292085,           0.
      3,           0.,          7.5,           0.
      4,           0.,          0.5,           0.
      5,  0.887120008,    6.5571537,           0.
      6,  0.887120008,   5.70361328,           0.
      7,  0.887120008,   4.85013103,           0.
      8,  0.887120008,   3.99682522,           0.
      9,  0.887120008,   3.14404869,           0.
     10,  0.887120008,   2.29285955,           0.
     11,  0.887120008,   1.44643259,           0.
     12,   1.60176766,  0.888032734,           0.
     13,   2.23983693,   1.31055212,           0.
     14,     2.770823,   1.86165023,           0.
     15,    3.1693399,   2.51497984,           0.
     16,   3.41633487,   3.23930597,           0.
     17,          3.5,           4.,           0.
     18,   3.41633487,   4.76069403,           0.
     19,    3.1693399,   5.48502016,           0.
     20,     2.770823,   6.13835001,           0.
** ... 941 like lines cut
*Element, type=C3D8R
  1,  22,   1,   5,  43,  63,  44,  46,  77
  2,   5,   6,  30,  43,  46,  47,  64,  77
  3,   6,   7,  31,  30,  47,  48,  65,  64
  4,  30,  20,  21,  43,  64,  61,  62,  77
  5,  30,  31,  33,  32,  64,  65,  67,  66
  6,  33,  18,  19,  32,  67,  59,  60,  66
  7,  17,  35,  36,  16,  58,  69,  70,  57
  8,  32,  19,  20,  30,  66,  60,  61,  64
  9,  37,  39,  38,  36,  71,  73,  72,  70
 10,  36,  35,  34,  37,  70,  69,  68,  71
 11,  15,  38,  39,  14,  56,  72,  73,  55
 12,  14,  39,  41,  13,  55,  73,  75,  54
 13,  13,  41,  42,  12,  54,  75,  76,  53
 14,  11,   2,  12,  42,  52,  45,  53,  76
 15,   7,   8,  34,  31,  48,  49,  68,  65
 16,  33,  31,  34,  35,  67,  65,  68,  69
 17,  18,  33,  35,  17,  59,  67,  69,  58
 18,   9,  37,  34,   8,  50,  71,  68,  49
 19,  40,  37,   9,  10,  74,  71,  50,  51
 20,  16,  36,  38,  15,  57,  70,  72,  56
** ... 596 like lines cut
*Element, type=C3D6
617,  29,  11,  52,   4,   2,  45
618,  28,  10,  51,  29,  11,  52
619,  27,   9,  50,  28,  10,  51
620,  26,   8,  49,  27,   9,  50
621,  25,   7,  48,  26,   8,  49
622,  24,   6,  47,  25,   7,  48
623,  23,   5,  46,  24,   6,  47
624,   3,   1,  44,  23,   5,  46
625,  29,  52,  86,   4,  45,  79
626,  28,  51,  85,  29,  52,  86
627,  27,  50,  84,  28,  51,  85
628,  26,  49,  83,  27,  50,  84
629,  25,  48,  82,  26,  49,  83
630,  24,  47,  81,  25,  48,  82
631,  23,  46,  80,  24,  47,  81
632,   3,  44,  78,  23,  46,  80
633,  29,  86, 120,   4,  79, 113
634,  28,  85, 119,  29,  86, 120
635,  27,  84, 118,  28,  85, 119
636,  26,  83, 117,  27,  84, 118
** ... 260 like lines cut
*Nset, nset=Set-1, generate
   1,  961,    1
*Elset, elset=Set-1, generate
   1,  896,    1
** Section: nuclei
*Solid Section, elset=Set-1, material=nuclei
,
*End Part
**  
**
** ASSEMBLY
**
*Assembly, name=Assembly
**  
*Instance, name=cytoskeleton-1, part=cytoskeleton
*End Instance
**  
*Instance, name=nuclei-1, part=nuclei
          0.,         -0.5,           0.
*End Instance
**  
*Instance, name=membrane-2, part=membrane
*End Instance
**  
*Node
      1,         -15.,           0.,           0.
*Node
      2,          15.,           0.,           0.
*Nset, nset=_PickedSet36, internal
 1,
*Nset, nset=_PickedSet69, internal, instance=membrane-2
   1,   2,   3,   4,   5,   7,   8,   9,  10,  11,  12,  13,  14,  15,  16,  17
  18,  19,  20,  21,  22,  23,  24,  25,  26,  27,  28,  29,  30,  31,  32,  33
  34,  35,  36,  37,  38,  39,  40,  41,  42,  43,  44,  45,  46,  47,  48,  49
  50,  51,  52,  63,  64,  65,  66,  67,  68,  69,  70,  71,  72,  73,  74,  75
  76,  77,  78,  79,  80,  81,  82,  83,  84,  85,  86,  87,  88,  89,  90,  91
  92,  93,  94,  95,  96,  97,  98,  99, 100, 101, 102, 103, 104, 105, 106, 107
 108, 109, 110, 111, 112, 113, 114, 115, 116, 117, 118, 119, 120, 121, 122, 123
 124, 125, 126, 127, 128, 129, 130, 131, 132, 133, 134, 135, 136, 137, 138, 139
 140, 141, 142, 143, 144, 145, 146, 147, 148, 149, 150, 151, 152, 153, 154, 155
 156, 157, 158, 159, 160, 161, 162, 163, 164, 165, 166, 167, 168, 169, 170, 171
 172, 173, 174, 175, 176, 177, 178, 179, 180, 181, 182, 183, 184, 185, 186, 187
 188, 189, 190, 191, 192, 193, 194, 195, 196, 197, 198, 199, 200, 201, 202, 203
 204, 205, 206, 207, 208, 209, 210, 211, 212, 213, 214, 215, 216, 217, 218, 219
 220,
*Elset, elset=_PickedSet69, internal, instance=membrane-2, generate
   1,  372,    1
*Nset, nset=_PickedSet86, internal, instance=cytoskeleton-1
    2,    3,    4,    5,    8,    9,   10,   19,   20,   21,   32,   33,   34,   35,   36,   37
   38,   39,   40,   41,   42,   43,   44,   45,   74,   75,   76,   77,   78,   79,   80,   81
   82,   83,   92,   93,   94,   95,   96,   97,  101,  102,  103,  104,  105,  106,  107,  108
  109,  110,  111,  112,  113,  114,  186,  187,  188,  189,  190,  191,  250,  251,  252,  253
  254,  255,  256,  257,  258,  259,  260,  261,  262,  263,  264,  265,  266,  267,  268,  269
  270,  271,  272,  273,  274,  275,  276,  277,  278,  279,  280,  281,  282,  455,  456,  457
  458,  459,  460,  461,  462,  463,  464,  465,  466,  467,  468,  469,  470,  471,  472,  473
  474,  475,  476,  477,  478,  479,  480,  481,  482,  483,  484,  485,  486,  487,  488,  489
  490,  491,  492,  493,  494,  495,  496,  497,  904,  905,  907,  913,  924,  941,  943,  945
  946, 1015, 1027, 1029, 1030, 1033, 1034, 1037, 1050, 1056, 1061, 1062, 1069, 1070, 1071, 1165
 1186, 1194, 1229, 1238, 1255, 1259, 1261, 1262, 1289, 1290, 1296, 1297, 1311, 1401, 1404, 1415
 1416, 1417, 1418, 1423, 1426, 1432, 1433, 1447, 1458, 1491, 1503, 1505, 1522, 1523, 1524, 1616
 1639, 1749, 1752, 1753, 1966, 2256, 2408, 2412, 2413, 2488, 2495, 2504, 2612, 2619, 2632, 2640
 2641, 2642, 2663, 2665, 2702, 2744, 2745, 2766, 2767, 2769, 2777, 2782, 2854, 2917, 2928, 2936
 3049, 3051, 3056, 3058, 3059, 3063, 3067, 3069, 3071, 3072, 3074, 3075, 3077, 3086, 3170, 3171
 3173, 3194, 3196, 3198, 3203, 3204, 3220, 3222, 3254, 3256, 3270, 3272, 3273, 3305, 3307, 3363
 3397, 3456, 3472, 3484, 3485, 3488, 3505, 3507, 3515, 3516, 3552, 3559, 3568, 3578, 3579, 3591
 3592, 3593, 3594, 3595, 3596, 3597, 3599, 3604, 3605, 3635, 3636, 3660, 3661, 3662, 3663, 3666
 3667, 3668, 3694, 3710, 3712, 3714, 3715, 3716, 3719, 3729, 3736, 3737, 3738, 3745, 3747, 3748
 3749, 3754, 3755, 3758, 3759, 3763, 3765, 3766, 3768, 3770, 3771, 3772, 3773, 3774, 3776, 3777
** ... 12 like lines cut
*Elset, elset=_PickedSet86, internal, instance=cytoskeleton-1
    3,   10,   33,   34,   44,   48,   95,   96,  104,  127,  130,  131,  142,  146,  151,  210
  223,  224,  228,  230,  236,  238,  255,  261,  268,  307,  308,  329,  371,  376,  436,  637
  725,  772,  780,  786,  941,  998, 1009, 1032, 1034, 1052, 1095, 1096, 1256, 1397, 1449, 1548
 1591, 1603, 1622, 1624, 1649, 1654, 1658, 1676, 1702, 1763, 1769, 1772, 1779, 1782, 1823, 1826
 1828, 1830, 1840, 1842, 1864, 1881, 1883, 1886, 1887, 1893, 1897, 1898, 1900, 1901, 1904, 1906
 1912, 1916, 1917, 1919, 1920, 1931, 1932, 1934, 1938, 1940, 1943, 1944, 1948, 1951, 1954, 1959
 1960, 1965, 1966, 1972, 1973, 1980, 1981, 1984, 1985, 1998, 2000, 2003, 2004, 2013, 2015, 2019
 2020, 2028, 2030, 2035, 2039, 2045, 2046, 2047, 2070, 2102, 2103, 2113, 2174, 2178, 2234, 2299
 2358, 2370, 2453, 2502, 2506, 2524, 2527, 2602, 2604, 2608, 2665, 2744, 2798, 2823, 2833, 2834
 2855, 2922, 2938, 2949, 2955, 2958, 2983, 2987, 3029, 3032, 3088, 3089, 3094, 3095, 3143, 3153
 3216, 3240, 3265, 3280, 3288, 3317, 3346, 3347, 3367, 3381, 3387, 3388, 3430, 3449, 3465, 3467
 3473, 3474, 3476, 3477, 3480, 3481, 3484, 3485, 3486, 3488, 3492, 3494, 3500, 3503, 3506, 3507
 3509, 3513, 3519, 3538, 3551, 3555, 3561, 3564, 3568, 3570, 3572, 3574, 3575, 3580, 3610, 3611
 3613, 3614, 3625, 3627, 3636, 3640, 3656, 3711, 3727, 3736, 3756, 3819, 3829, 3845, 3850, 3851
 3854, 3862, 3867, 3878, 3911, 3923, 3931, 3942, 3946, 3960, 3972, 4012, 4041, 4049
*Nset, nset=_PickedSet106, internal
 1,
*Nset, nset=_PickedSet108, internal
 2,
*Nset, nset=_PickedSet111, internal
 1,
*Nset, nset=_PickedSet112, internal, instance=cytoskeleton-1
    1,    2,    3,    4,    5,    6,    7,    8,    9,   11,   12,   13,   14,   15,   16,   17
   18,   19,   20,   21,   22,   23,   24,   25,   26,   27,   28,   29,   30,   31,   32,   33
   34,   35,   36,   37,   38,   39,   40,   41,   42,   43,   44,   45,   46,   47,   48,   49
   50,   51,   52,   53,   54,   55,   56,   57,   58,   59,   60,   61,   62,   63,   64,   65
   66,   67,   68,   69,   70,   71,   72,   73,   74,   75,   76,   77,   78,   79,   80,   81
   82,   83,   84,   85,   86,   87,   88,   89,   90,   91,   92,   93,   94,   95,   96,   97
   98,   99,  100,  115,  116,  117,  118,  119,  120,  121,  122,  123,  124,  125,  126,  127
  128,  129,  130,  131,  132,  133,  134,  135,  136,  137,  138,  139,  140,  141,  142,  143
  144,  145,  146,  147,  148,  149,  150,  151,  152,  153,  154,  155,  156,  157,  158,  159
  160,  161,  162,  163,  164,  165,  166,  167,  168,  169,  170,  171,  172,  173,  174,  175
  176,  177,  178,  179,  180,  181,  182,  183,  184,  185,  186,  187,  188,  189,  190,  191
  192,  193,  194,  195,  196,  197,  198,  199,  200,  201,  202,  203,  204,  205,  206,  207
  208,  209,  210,  211,  212,  213,  214,  215,  216,  217,  218,  219,  220,  221,  222,  223
  224,  225,  226,  227,  228,  229,  230,  231,  232,  233,  234,  235,  236,  237,  238,  239
  240,  241,  242,  243,  244,  245,  246,  247,  248,  249,  250,  251,  252,  253,  254,  255
  256,  257,  258,  259,  260,  261,  262,  263,  264,  265,  266,  267,  268,  269,  270,  271
  272,  273,  274,  275,  276,  277,  278,  279,  280,  281,  282,  283,  284,  285,  286,  287
  288,  289,  290,  291,  292,  293,  294,  295,  296,  297,  298,  299,  300,  301,  302,  303
  304,  305,  306,  307,  308,  309,  310,  311,  312,  313,  314,  315,  316,  317,  318,  319
  320,  321,  322,  323,  324,  325,  326,  327,  498,  499,  500,  501,  502,  503,  504,  505
** ... 198 like lines cut
*Elset, elset=_PickedSet112, internal, instance=cytoskeleton-1, generate
    1,  2187,     1
*Nset, nset=_PickedSet113, internal, instance=cytoskeleton-1, generate
    1,  6248,     1
*Elset, elset=_PickedSet113, internal, instance=cytoskeleton-1, generate
    1,  4050,     1
*Nset, nset=_PickedSet114, internal, instance=nuclei-1
   1,   2,   3,   4,  12,  13,  14,  15,  16,  17,  18,  19,  20,  21,  22,  44
  45,  53,  54,  55,  56,  57,  58,  59,  60,  61,  62,  63,  78,  79,  87,  88
  89,  90,  91,  92,  93,  94,  95,  96,  97, 112, 113, 121, 122, 123, 124, 125
 126, 127, 128, 129, 130, 131, 146, 147, 155, 156, 157, 158, 159, 160, 161, 162
 163, 164, 165, 180, 181, 189, 190, 191, 192, 193, 194, 195, 196, 197, 198, 199
 214, 215, 223, 224, 225, 226, 227, 228, 229, 230, 231, 232, 233, 248, 249, 257
 258, 259, 260, 261, 262, 263, 264, 265, 266, 267, 282, 283, 291, 292, 293, 294
 295, 296, 297, 298, 299, 300, 301, 316, 317, 325, 326, 327, 328, 329, 330, 331
 332, 333, 334, 335, 350, 351, 359, 360, 361, 362, 363, 364, 365, 366, 367, 368
 369, 384, 385, 393, 394, 395, 396, 397, 398, 399, 400, 401, 402, 403, 418, 419
 427, 428, 429, 430, 431, 432, 433, 434, 435, 436, 437, 452, 453, 461, 462, 463
 464, 465, 466, 467, 468, 469, 470, 471, 486, 487, 495, 496, 497, 498, 499, 500
 501, 502, 503, 504, 505, 520, 521, 529, 530, 531, 532, 533, 534, 535, 536, 537
 538, 539, 554, 555, 563, 564, 565, 566, 567, 568, 569, 570, 571, 572, 573, 588
 589, 597, 598, 599, 600, 601, 602, 603, 604, 605, 606, 607, 622, 623, 631, 632
 633, 634, 635, 636, 637, 638, 639, 640, 641, 656, 657, 665, 666, 667, 668, 669
 670, 671, 672, 673, 674, 675, 690, 691, 699, 700, 701, 702, 703, 704, 705, 706
 707, 708, 709, 724, 725, 733, 734, 735, 736, 737, 738, 739, 740, 741, 742, 743
 758, 759, 767, 768, 769, 770, 771, 772, 773, 774, 775, 776, 777, 792, 793, 801
 802, 803, 804, 805, 806, 807, 808, 809, 810, 811, 826, 827, 835, 836, 837, 838
 839, 840, 841, 842, 843, 844, 845, 860, 861, 869, 870, 871, 872, 873, 874, 875
 876, 877, 878, 879, 894, 895, 903, 904, 905, 906, 907, 908, 909, 910, 911, 912
 913, 928, 929, 937, 938, 939, 940, 941, 942, 943, 944, 945, 946, 947
*Elset, elset=_PickedSet114, internal, instance=nuclei-1
   1,   4,   6,   7,   8,  11,  12,  13,  14,  17,  20,  23,  26,  28,  29,  30
  33,  34,  35,  36,  39,  42,  45,  48,  50,  51,  52,  55,  56,  57,  58,  61
  64,  67,  70,  72,  73,  74,  77,  78,  79,  80,  83,  86,  89,  92,  94,  95
  96,  99, 100, 101, 102, 105, 108, 111, 114, 116, 117, 118, 121, 122, 123, 124
 127, 130, 133, 136, 138, 139, 140, 143, 144, 145, 146, 149, 152, 155, 158, 160
 161, 162, 165, 166, 167, 168, 171, 174, 177, 180, 182, 183, 184, 187, 188, 189
 190, 193, 196, 199, 202, 204, 205, 206, 209, 210, 211, 212, 215, 218, 221, 224
 226, 227, 228, 231, 232, 233, 234, 237, 240, 243, 246, 248, 249, 250, 253, 254
 255, 256, 259, 262, 265, 268, 270, 271, 272, 275, 276, 277, 278, 281, 284, 287
 290, 292, 293, 294, 297, 298, 299, 300, 303, 306, 309, 312, 314, 315, 316, 319
 320, 321, 322, 325, 328, 331, 334, 336, 337, 338, 341, 342, 343, 344, 347, 350
 353, 356, 358, 359, 360, 363, 364, 365, 366, 369, 372, 375, 378, 380, 381, 382
 385, 386, 387, 388, 391, 394, 397, 400, 402, 403, 404, 407, 408, 409, 410, 413
 416, 419, 422, 424, 425, 426, 429, 430, 431, 432, 435, 438, 441, 444, 446, 447
 448, 451, 452, 453, 454, 457, 460, 463, 466, 468, 469, 470, 473, 474, 475, 476
 479, 482, 485, 488, 490, 491, 492, 495, 496, 497, 498, 501, 504, 507, 510, 512
 513, 514, 517, 518, 519, 520, 523, 526, 529, 532, 534, 535, 536, 539, 540, 541
 542, 545, 548, 551, 554, 556, 557, 558, 561, 562, 563, 564, 567, 570, 573, 576
 578, 579, 580, 583, 584, 585, 586, 589, 592, 595, 598, 600, 601, 602, 605, 606
 607, 608, 611, 614, 617, 624, 625, 632, 633, 640, 641, 648, 649, 656, 657, 664
** ... 5 like lines cut
*Elset, elset=__PickedSurf77_SNEG, internal, instance=membrane-2, generate
 373,  729,    1
*Surface, type=ELEMENT, name=_PickedSurf77, internal
__PickedSurf77_SNEG, SNEG
*Elset, elset=__PickedSurf78_S3, internal, instance=cytoskeleton-1
   28,   72,  121,  153,  155,  182,  184,  199,  200,  227,  236,  237,  244,  252,  257,  259
  266,  270,  273,  275,  276,  277,  286,  287,  289,  290,  291,  292,  298,  300,  302,  306
  307,  310,  312,  313,  314,  315,  316,  317,  318,  320,  321,  322,  327,  329,  330,  334
  335,  338,  343,  344,  347,  348,  349,  355,  356,  357,  359,  360,  361,  362,  363,  364
  365,  367,  368,  369,  370,  376,  381,  383,  513,  516,  561,  566,  622,  723,  745,  878
  890,  907,  976, 1031, 1223, 1227, 1311, 1317, 1344, 1377, 1447, 1451, 1500, 1501, 1529, 1553
 1555, 1585, 1588, 1589, 1599, 1605, 1617, 1660, 1661, 1678, 1683, 1688, 1692, 1693, 1698, 1699
 1700, 1704, 1705, 1708, 1713, 1714, 1715, 1717, 1720, 1727, 1728, 1732, 1733, 1736, 1747, 1749
 1750, 1752, 1754, 1756, 1758, 1761, 1766, 1768, 1777, 1784, 1790, 1792, 1793, 1796, 1802, 1806
 1808, 1812, 1814, 1815, 1822, 1829, 1839, 1841, 1846, 1852, 1853, 1854, 1865, 1866, 1868, 1874
 1875, 1877, 1923, 1958, 1983, 2006, 2008, 2011, 2017, 2021, 2029, 2031, 2034, 2036, 2037, 2038
 2049, 2051, 2052, 2056, 2064, 2067, 2075, 2076, 2082, 2086, 2089, 2090, 2097, 2101, 2114, 2117
 2126, 2133, 2137, 2138, 2141, 2147, 2148, 2164, 2171, 2173, 2181
*Elset, elset=__PickedSurf78_S4, internal, instance=cytoskeleton-1
   34,  145,  191,  267, 1121, 1452, 1549, 1554, 1684, 1694, 1751, 1760, 1830, 1886, 1910, 1919
 1921, 1934, 1964, 2061, 2074, 2145, 2161
*Elset, elset=__PickedSurf78_S2, internal, instance=cytoskeleton-1
  110,  324,  332, 1494, 1691, 1791, 1797, 1810, 1817, 1845, 1876, 1959, 2091, 2178
*Elset, elset=__PickedSurf78_S1, internal, instance=cytoskeleton-1
  126,  229,  472, 1581, 1696, 1716, 1723, 1787, 1804, 1809, 1858, 1869, 1957, 2040, 2071, 2080
 2144,
*Surface, type=ELEMENT, name=_PickedSurf78, internal
__PickedSurf78_S3, S3
__PickedSurf78_S4, S4
__PickedSurf78_S2, S2
__PickedSurf78_S1, S1
*Elset, elset=__PickedSurf84_SNEG, internal, instance=membrane-2, generate
   1,  372,    1
*Surface, type=ELEMENT, name=_PickedSurf84, internal
__PickedSurf84_SNEG, SNEG
*Elset, elset=__PickedSurf85_S3, internal, instance=cytoskeleton-1
    3,   10,   33,   44,   48,   95,   96,  104,  127,  131,  142,  151,  224,  230,  238,  268
  725,  772,  780,  786,  998, 1009, 1032, 1034, 1052, 1095, 1096, 1397, 1449, 1548, 1591, 1603
 1622, 1624, 1649, 1654, 1658, 1676, 1763, 1769, 1779, 1782, 1823, 1826, 1828, 1830, 1840, 1842
 1864, 1881, 1883, 1887, 1893, 1906, 1912, 1916, 1917, 1919, 1920, 1931, 1938, 1948, 1951, 1954
 1960, 1965, 1966, 1972, 1973, 1981, 1984, 1985, 1998, 2000, 2003, 2004, 2013, 2015, 2019, 2028
 2035, 2039, 2045, 2046, 2047, 2103, 2174, 2178, 2234, 2299, 2358, 2502, 2527, 2602, 2604, 2608
 2665, 2823, 2833, 2855, 2949, 2955, 2958, 2983, 3029, 3032, 3088, 3089, 3094, 3095, 3143, 3240
 3280, 3288, 3317, 3347, 3367, 3381, 3387, 3388, 3430, 3449, 3465, 3473, 3476, 3477, 3480, 3481
 3484, 3485, 3486, 3503, 3507, 3509, 3513, 3519, 3538, 3551, 3555, 3561, 3564, 3568, 3570, 3572
 3574, 3575, 3611, 3614, 3627, 3636, 3656, 3711, 3736, 3756, 3829, 3845, 3850, 3878, 3923, 3931
 3942, 3946, 3960, 3972, 4012, 4041, 4049
*Elset, elset=__PickedSurf85_S2, internal, instance=cytoskeleton-1
   34,  146,  210,  255,  261,  307,  329,  371, 1886, 1904, 1932, 1944, 2030, 2070, 2370, 2506
 2922, 3153, 3346, 3474, 3494, 3506, 3911
*Elset, elset=__PickedSurf85_S1, internal, instance=cytoskeleton-1
  130,  223,  228,  236,  376,  941, 1256, 1702, 1772, 1897, 1900, 1934, 1943, 2020, 2102, 2453
 2798, 2834, 2938, 3492, 3640, 3727
*Elset, elset=__PickedSurf85_S4, internal, instance=cytoskeleton-1
  308,  436,  637, 1898, 1901, 1940, 1959, 1980, 2113, 2524, 2744, 2987, 3216, 3265, 3467, 3488
 3500, 3580, 3610, 3613, 3625, 3819, 3851, 3854, 3862, 3867
*Surface, type=ELEMENT, name=_PickedSurf85, internal
__PickedSurf85_S3, S3
__PickedSurf85_S2, S2
__PickedSurf85_S4, S4
__PickedSurf85_S1, S1
*Surface, type=NODE, name=_PickedSet112_CNS_, internal
_PickedSet112, 1.
*Surface, type=NODE, name=_PickedSet113_CNS_, internal
_PickedSet113, 1.
*Surface, type=NODE, name=_PickedSet114_CNS_, internal
_PickedSet114, 1.
** Constraint: cy1
*MPC
BEAM, _PickedSet112, _PickedSet111
** Constraint: cy2nu
*Tie, name=cy2nu, adjust=yes
_PickedSet114_CNS_, _PickedSet113_CNS_
** Constraint: tie
*Tie, name=tie, adjust=yes
_PickedSurf78, _PickedSurf77
** Constraint: tie2
*Tie, name=tie2, adjust=yes
_PickedSurf85, _PickedSurf84
*End Assembly
*Amplitude, name=Amp-1, definition=SMOOTH STEP
             0.,              0.,              1.,              1.
*Amplitude, name=Amp-2, definition=SMOOTH STEP
             0.,              0.,              1.,              1.
*Amplitude, name=Amp-3, definition=SMOOTH STEP
             0.,              0.,           1e-05,              1.
** 
** MATERIALS
** 
*Material, name=cytoskeleton
*Density
 1e-21,
*Elastic
 7e-10, 0.4
*Material, name=envelop
*Density
 1.2e-21,
*Elastic
 4e-10, 0.4
*Material, name=membrane
*Density
 1.2e-21,
*Elastic
 4e-10, 0.4
*Material, name=nuclei
*Density
 1.2e-21,
*Elastic
 4e-10, 0.4
** ----------------------------------------------------------------
** 
** STEP: Step-1
** 
*Step, name=Step-1, nlgeom=YES
*Dynamic, Explicit
, 1e-05
*Bulk Viscosity
0.06, 1.2
** 
** BOUNDARY CONDITIONS
** 
** Name: rigid substrate Type: Symmetry/Antisymmetry/Encastre
*Boundary
_PickedSet69, YSYMM
** Name: rigid2 Type: Symmetry/Antisymmetry/Encastre
*Boundary
_PickedSet86, YSYMM
** 
** LOADS
** 
** Name: Load-1   Type: Concentrated force
*Cload, amplitude=Amp-3
_PickedSet36, 1, -8e-14
_PickedSet36, 2, 0.
** 
** OUTPUT REQUESTS
** 
*Restart, write, number interval=1, time marks=NO
** 
** FIELD OUTPUT: F-Output-1
** 
*Output, field, variable=PRESELECT
** 
** HISTORY OUTPUT: H-Output-1
** 
*Output, history, variable=PRESELECT
*End Step
